DSDR_Study/results/database/9_BusLoadFlow_DG_out.csv
Bus,Un (kV),Va (pu),Va (kV),ang a,Vb (pu),Vb (kV),ang b,Vc (pu),Vc (kV),ang c,Load P (kW),Load Q (kvar),Cap Q supplied (kvar),Source P (kW),Source Q (kvar)
SubstationHV,115.00,1.0000,66.3953,0.00,1.0000,66.3956,-120.00,1.0000,66.3949,120.00,-,-,-,3618.2,2003.3
650,4.16,0.9981,2.3973,-33.34,1.0170,2.4426,-152.65,0.9979,2.3967,86.35,-,-,-,-,-
RG60,4.16,1.0605,2.5471,-33.34,1.0679,2.5648,-152.65,1.0665,2.5615,86.35,-,-,-,-,-
632,4.16,1.0187,2.4466,-35.92,1.0616,2.5497,-154.32,1.0142,2.4358,84.22,-,-,-,-,-
633,4.16,1.0158,2.4396,-35.93,1.0588,2.5429,-154.38,1.0124,2.4315,84.18,-,-,-,-,-
645,4.16,-,-,-,1.0540,2.5314,-154.44,1.0106,2.4273,84.30,170.0,125.0,-,-,-
nDL1,4.16,1.0133,2.4337,-36.38,1.0632,2.5536,-154.43,1.0073,2.4192,83.90,40.0,23.2,-,-,-
634,0.48,0.9918,0.2749,-36.60,1.0406,0.2884,-154.82,0.9936,0.2754,83.69,400.0,290.0,-,-,-
646,4.16,-,-,-,1.0522,2.5272,-154.52,1.0085,2.4223,84.34,247.0,141.8,-,-,-
nDL2,4.16,1.0080,2.4210,-36.83,1.0649,2.5576,-154.55,1.0005,2.4030,83.59,40.0,23.2,-,-,-
nDL,4.16,1.0028,2.4084,-37.29,1.0666,2.5617,-154.65,0.9939,2.3872,83.28,-,-,-,-,-
nDL4,4.16,0.9977,2.3961,-37.76,1.0684,2.5661,-154.76,0.9875,2.3718,82.98,40.0,23.2,-,-,-
DL,4.16,1.0028,2.4084,-37.29,1.0666,2.5617,-154.65,0.9939,2.3872,83.28,40.0,23.2,-,-,-
nDL5,4.16,0.9926,2.3841,-38.23,1.0703,2.5706,-154.86,0.9813,2.3569,82.68,40.0,23.2,-,-,-
671,4.16,0.9877,2.3722,-38.70,1.0722,2.5752,-154.95,0.9753,2.3423,82.38,1155.0,660.0,-,-,-
684,4.16,0.9859,2.3679,-38.72,-,-,-,0.9732,2.3373,82.27,-,-,-,-,-
680,4.16,0.9877,2.3722,-38.70,1.0722,2.5752,-154.95,0.9753,2.3423,82.38,-,-,-,-,-
692,4.16,0.9877,2.3722,-38.70,1.0722,2.5752,-154.95,0.9753,2.3423,82.38,167.8,149.0,-,-,-
652,4.16,0.9811,2.3564,-38.64,-,-,-,-,-,-,123.2,82.8,-,-,-
611,4.16,-,-,-,-,-,-,0.9712,2.3327,82.13,165.1,77.7,94.3,-,-
675,4.16,0.9809,2.3558,-39.06,1.0767,2.5859,-155.12,0.9729,2.3367,82.49,843.0,462.0,613.6,-,-
DG,0.69,1.0103,0.4025,174.64,1.0376,0.4133,52.23,0.9868,0.3931,-67.95,-,-,-,-,-
